@<TRIPOS>MOLECULE
ixo_ligand.A
31 31 1 0 0 
SMALL
USER_CHARGES


@<TRIPOS>ATOM
  1 C01      2.1910     0.9920     4.7010 C.3   1 IXO   0.0000 
  2 H011     2.6311     0.3698     5.4803 H     1 IXO   0.0000 
  3 H012     2.4408     2.0368     4.8858 H     1 IXO   0.0000 
  4 H013     2.5843     0.6907     3.7301 H     1 IXO   0.0000 
  5 N02      0.7440     0.8300     4.7100 N.4   1 IXO   1.0000 
  6 C03      0.2440     1.2110     6.0020 C.3   1 IXO   0.0000 
  7 H031     0.6818     0.5676     6.7652 H     1 IXO   0.0000 
  8 H032    -0.8409     1.1063     6.0171 H     1 IXO   0.0000 
  9 H033     0.5117     2.2482     6.2038 H     1 IXO   0.0000 
 10 C04      0.3540    -0.6130     4.4230 C.3   1 IXO   0.0000 
 11 H041     0.7661    -1.2614     5.1962 H     1 IXO   0.0000 
 12 H042     0.7490    -0.9098     3.4514 H     1 IXO   0.0000 
 13 H043    -0.7324    -0.7012     4.4159 H     1 IXO   0.0000 
 14 C05      0.1890     1.6560     3.6790 C.3   1 IXO   0.0000 
 15 H051     0.7152     1.4195     2.7542 H     1 IXO   0.0000 
 16 H052     0.3837     2.6929     3.9528 H     1 IXO   0.0000 
 17 C06     -1.2740     1.5350     3.4030 C.1   1 IXO   0.0000 
 18 C07     -2.5300     1.4780     3.1560 C.1   1 IXO   0.0000 
 19 C08     -4.0740     1.4450     2.9760 C.3   1 IXO   0.0000 
 20 H081    -4.4205     2.4772     2.9239 H     1 IXO   0.0000 
 21 H082    -4.4970     0.9639     3.8579 H     1 IXO   0.0000 
 22 O09     -4.5850     0.7580     1.8210 O.3   1 IXO   0.0000 
 23 C10     -4.1110    -0.4800     1.4870 C.2   1 IXO   0.0000 
 24 N11     -3.5190    -1.3810     2.3910 N.2   1 IXO   0.0000 
 25 O12     -3.1820    -2.5090     1.6960 O.3   1 IXO   0.0000 
 26 C13     -3.8160    -2.4350     0.4140 C.3   1 IXO   0.0000 
 27 H131    -4.7178    -3.0471     0.4026 H     1 IXO   0.0000 
 28 H132    -3.1346    -2.7774    -0.3648 H     1 IXO   0.0000 
 29 C14     -4.1530    -1.0400     0.2090 C.3   1 IXO   0.0000 
 30 H141    -3.4261    -0.5601    -0.4462 H     1 IXO   0.0000 
 31 H142    -5.1497    -0.9434    -0.2216 H     1 IXO   0.0000 
@<TRIPOS>BOND
  1   1   2  1   
  2   1   3  1   
  3   1   4  1   
  4   1   5  1   
  5   5   6  1   
  6   5  10  1   
  7   5  14  1   
  8   6   7  1   
  9   6   8  1   
 10   6   9  1   
 11  10  11  1   
 12  10  12  1   
 13  10  13  1   
 14  14  15  1   
 15  14  16  1   
 16  14  17  1   
 17  17  18  3   
 18  18  19  1   
 19  19  20  1   
 20  19  21  1   
 21  19  22  1   
 22  22  23  1   
 23  23  24  2   
 24  23  29  1   
 25  24  25  1   
 26  25  26  1   
 27  26  27  1   
 28  26  28  1   
 29  26  29  1   
 30  29  30  1   
 31  29  31  1   
@<TRIPOS>SUBSTRUCTURE
  1 IXO  18 GROUP 4 A **** 0

# MOE 2019.01 (io_trps.svl 2018.10)
