@<TRIPOS>MOLECULE
IXO
   31    31     1     0     0
SMALL
bcc


@<TRIPOS>ATOM
      1 C01          2.1910     0.9920     4.7010 c3         1 IXO       0.087433
      2 H011         2.6310     0.3700     5.4800 hx         1 IXO       0.104367
      3 H012         2.4410     2.0370     4.8860 hx         1 IXO       0.104367
      4 H013         2.5840     0.6910     3.7300 hx         1 IXO       0.104367
      5 N02          0.7440     0.8300     4.7100 n4         1 IXO      -0.604800
      6 C03          0.2440     1.2110     6.0020 c3         1 IXO       0.087433
      7 H031         0.6820     0.5680     6.7650 hx         1 IXO       0.104367
      8 H032        -0.8410     1.1060     6.0170 hx         1 IXO       0.104367
      9 H033         0.5120     2.2480     6.2040 hx         1 IXO       0.104367
     10 C04          0.3540    -0.6130     4.4230 c3         1 IXO       0.087433
     11 H041         0.7660    -1.2610     5.1960 hx         1 IXO       0.104367
     12 H042         0.7490    -0.9100     3.4510 hx         1 IXO       0.104367
     13 H043        -0.7320    -0.7010     4.4160 hx         1 IXO       0.104367
     14 C05          0.1890     1.6560     3.6790 c3         1 IXO       0.232900
     15 H051         0.7150     1.4190     2.7540 hx         1 IXO       0.111700
     16 H052         0.3840     2.6930     3.9530 hx         1 IXO       0.111700
     17 C06         -1.2740     1.5350     3.4030 c1         1 IXO      -0.220100
     18 C07         -2.5300     1.4780     3.1560 c1         1 IXO      -0.010100
     19 C08         -4.0740     1.4450     2.9760 c3         1 IXO       0.189500
     20 H081        -4.4200     2.4770     2.9240 h1         1 IXO       0.108700
     21 H082        -4.4970     0.9640     3.8580 h1         1 IXO       0.108700
     22 O09         -4.5850     0.7580     1.8210 os         1 IXO      -0.363400
     23 C10         -4.1110    -0.4800     1.4870 c2         1 IXO       0.490600
     24 N11         -3.5190    -1.3810     2.3910 n2         1 IXO      -0.489200
     25 O12         -3.1820    -2.5090     1.6960 os         1 IXO      -0.160300
     26 C13         -3.8160    -2.4350     0.4140 c3         1 IXO       0.084400
     27 H131        -4.7180    -3.0470     0.4030 h1         1 IXO       0.083200
     28 H132        -3.1350    -2.7770    -0.3650 h1         1 IXO       0.083200
     29 C14         -4.1530    -1.0400     0.2090 c3         1 IXO      -0.154700
     30 H141        -3.4260    -0.5600    -0.4460 hc         1 IXO       0.098200
     31 H142        -5.1500    -0.9430    -0.2220 hc         1 IXO       0.098200
@<TRIPOS>BOND
     1     1     2 1   
     2     1     3 1   
     3     1     4 1   
     4     1     5 1   
     5     5     6 1   
     6     5    10 1   
     7     5    14 1   
     8     6     7 1   
     9     6     8 1   
    10     6     9 1   
    11    10    11 1   
    12    10    12 1   
    13    10    13 1   
    14    14    15 1   
    15    14    16 1   
    16    14    17 1   
    17    17    18 3   
    18    18    19 1   
    19    19    20 1   
    20    19    21 1   
    21    19    22 1   
    22    22    23 1   
    23    23    24 2   
    24    23    29 1   
    25    24    25 1   
    26    25    26 1   
    27    26    27 1   
    28    26    28 1   
    29    26    29 1   
    30    29    30 1   
    31    29    31 1   
@<TRIPOS>SUBSTRUCTURE
     1 IXO         1 TEMP              0 ****  ****    0 ROOT
